# generated using pymatgen
data_CuPH4C2O3
_symmetry_space_group_name_H-M   'P 1'
_cell_length_a   8.57800000
_cell_length_b   13.86600000
_cell_length_c   21.03300000
_cell_angle_alpha   109.12800000
_cell_angle_beta   92.71000000
_cell_angle_gamma   89.97500000
_symmetry_Int_Tables_number   1
_chemical_formula_structural   CuPH4C2O3
_chemical_formula_sum   'Cu16 P16 H64 C32 O48'
_cell_volume   2360.65209775
_cell_formula_units_Z   16
loop_
 _symmetry_equiv_pos_site_id
 _symmetry_equiv_pos_as_xyz
  1  'x, y, z'
loop_
 _atom_site_type_symbol
 _atom_site_label
 _atom_site_symmetry_multiplicity
 _atom_site_fract_x
 _atom_site_fract_y
 _atom_site_fract_z
 _atom_site_occupancy
  Cu  Cu1  1  0.250315  0.000296  0.250051  1.0
  Cu  Cu2  1  0.250074  0.001318  0.750111  1.0
  Cu  Cu3  1  0.250377  0.500316  0.250054  1.0
  Cu  Cu4  1  0.249994  0.501348  0.750099  1.0
  Cu  Cu5  1  0.750275  0.000295  0.250046  1.0
  Cu  Cu6  1  0.750058  0.001326  0.750113  1.0
  Cu  Cu7  1  0.750351  0.500326  0.250055  1.0
  Cu  Cu8  1  0.749995  0.501349  0.750099  1.0
  Cu  Cu9  1  0.250468  0.250286  0.250049  1.0
  Cu  Cu10  1  0.250257  0.251207  0.749993  1.0
  Cu  Cu11  1  0.250367  0.750233  0.250013  1.0
  Cu  Cu12  1  0.250205  0.751192  0.749971  1.0
  Cu  Cu13  1  0.750447  0.250289  0.250042  1.0
  Cu  Cu14  1  0.750242  0.251209  0.749997  1.0
  Cu  Cu15  1  0.750332  0.750239  0.250012  1.0
  Cu  Cu16  1  0.750235  0.751188  0.749971  1.0
  P  P17  1  0.491796  0.088914  0.176743  1.0
  P  P18  1  0.491684  0.089763  0.676744  1.0
  P  P19  1  0.491799  0.588824  0.176721  1.0
  P  P20  1  0.491599  0.589763  0.676733  1.0
  P  P21  1  0.991779  0.088903  0.176748  1.0
  P  P22  1  0.991652  0.089769  0.676752  1.0
  P  P23  1  0.991786  0.588839  0.176731  1.0
  P  P24  1  0.991595  0.589755  0.676717  1.0
  P  P25  1  0.008796  0.411710  0.323296  1.0
  P  P26  1  0.008535  0.412730  0.823319  1.0
  P  P27  1  0.008711  0.911641  0.323295  1.0
  P  P28  1  0.008559  0.912694  0.823300  1.0
  P  P29  1  0.508798  0.411726  0.323299  1.0
  P  P30  1  0.508508  0.412722  0.823313  1.0
  P  P31  1  0.508680  0.911655  0.323304  1.0
  P  P32  1  0.508547  0.912687  0.823307  1.0
  H  H33  1  0.151591  0.484052  0.094558  1.0
  H  H34  1  0.151838  0.485056  0.594717  1.0
  H  H35  1  0.151764  0.984319  0.094537  1.0
  H  H36  1  0.151906  0.985120  0.594760  1.0
  H  H37  1  0.651527  0.483996  0.094550  1.0
  H  H38  1  0.651821  0.485057  0.594738  1.0
  H  H39  1  0.651760  0.984365  0.094531  1.0
  H  H40  1  0.651964  0.985146  0.594782  1.0
  H  H41  1  0.382855  0.454759  0.035717  1.0
  H  H42  1  0.383148  0.454901  0.535892  1.0
  H  H43  1  0.382905  0.954867  0.035753  1.0
  H  H44  1  0.383234  0.954932  0.535957  1.0
  H  H45  1  0.882850  0.454759  0.035743  1.0
  H  H46  1  0.883110  0.454904  0.535884  1.0
  H  H47  1  0.882870  0.954881  0.035766  1.0
  H  H48  1  0.883149  0.954946  0.535955  1.0
  H  H49  1  0.348767  0.389424  0.405696  1.0
  H  H50  1  0.348387  0.390062  0.905535  1.0
  H  H51  1  0.348836  0.889281  0.405727  1.0
  H  H52  1  0.348448  0.890023  0.905541  1.0
  H  H53  1  0.848724  0.389395  0.405674  1.0
  H  H54  1  0.848354  0.390106  0.905545  1.0
  H  H55  1  0.848789  0.889278  0.405718  1.0
  H  H56  1  0.848438  0.890023  0.905538  1.0
  H  H57  1  0.117362  0.418969  0.464657  1.0
  H  H58  1  0.116987  0.418847  0.964449  1.0
  H  H59  1  0.117391  0.918963  0.464712  1.0
  H  H60  1  0.116977  0.918907  0.964471  1.0
  H  H61  1  0.617378  0.418991  0.464677  1.0
  H  H62  1  0.616986  0.418829  0.964424  1.0
  H  H63  1  0.617434  0.918970  0.464694  1.0
  H  H64  1  0.617017  0.918927  0.964472  1.0
  H  H65  1  0.348317  0.015960  0.405406  1.0
  H  H66  1  0.348443  0.016893  0.905587  1.0
  H  H67  1  0.348460  0.516137  0.405386  1.0
  H  H68  1  0.348461  0.516986  0.905626  1.0
  H  H69  1  0.848318  0.015955  0.405396  1.0
  H  H70  1  0.848397  0.016892  0.905600  1.0
  H  H71  1  0.848409  0.516114  0.405360  1.0
  H  H72  1  0.848503  0.517022  0.905632  1.0
  H  H73  1  0.117223  0.045932  0.464171  1.0
  H  H74  1  0.117459  0.046068  0.964335  1.0
  H  H75  1  0.117241  0.546001  0.464168  1.0
  H  H76  1  0.117487  0.546089  0.964383  1.0
  H  H77  1  0.617235  0.045958  0.464164  1.0
  H  H78  1  0.617438  0.046098  0.964324  1.0
  H  H79  1  0.617248  0.546017  0.464197  1.0
  H  H80  1  0.617475  0.546074  0.964352  1.0
  H  H81  1  0.151855  0.111056  0.094327  1.0
  H  H82  1  0.151599  0.111678  0.594200  1.0
  H  H83  1  0.152054  0.610810  0.094313  1.0
  H  H84  1  0.151553  0.611658  0.594173  1.0
  H  H85  1  0.651792  0.111093  0.094318  1.0
  H  H86  1  0.651608  0.111707  0.594221  1.0
  H  H87  1  0.652093  0.610749  0.094304  1.0
  H  H88  1  0.651545  0.611661  0.594192  1.0
  H  H89  1  0.383024  0.081967  0.035493  1.0
  H  H90  1  0.382806  0.081874  0.535335  1.0
  H  H91  1  0.383131  0.581948  0.035543  1.0
  H  H92  1  0.382730  0.581882  0.535309  1.0
  H  H93  1  0.883042  0.081983  0.035517  1.0
  H  H94  1  0.882750  0.081869  0.535323  1.0
  H  H95  1  0.883073  0.581945  0.035558  1.0
  H  H96  1  0.882713  0.581888  0.535295  1.0
  C  C97  1  0.074771  0.047911  0.094818  1.0
  C  C98  1  0.074703  0.048528  0.594836  1.0
  C  C99  1  0.074782  0.547756  0.094808  1.0
  C  C100  1  0.074645  0.548509  0.594799  1.0
  C  C101  1  0.574726  0.047937  0.094806  1.0
  C  C102  1  0.574735  0.048531  0.594831  1.0
  C  C103  1  0.574764  0.547720  0.094794  1.0
  C  C104  1  0.574637  0.548515  0.594823  1.0
  C  C105  1  0.459143  0.017282  0.033505  1.0
  C  C106  1  0.459169  0.017372  0.533525  1.0
  C  C107  1  0.459157  0.517202  0.033505  1.0
  C  C108  1  0.459114  0.517392  0.533508  1.0
  C  C109  1  0.959138  0.017286  0.033525  1.0
  C  C110  1  0.959117  0.017374  0.533528  1.0
  C  C111  1  0.959123  0.517213  0.033528  1.0
  C  C112  1  0.959078  0.517386  0.533488  1.0
  C  C113  1  0.425673  0.452647  0.405194  1.0
  C  C114  1  0.425471  0.453313  0.905225  1.0
  C  C115  1  0.425630  0.952560  0.405228  1.0
  C  C116  1  0.425487  0.953285  0.905215  1.0
  C  C117  1  0.925621  0.452630  0.405185  1.0
  C  C118  1  0.925482  0.453335  0.905236  1.0
  C  C119  1  0.925607  0.952542  0.405212  1.0
  C  C120  1  0.925468  0.953288  0.905210  1.0
  C  C121  1  0.041132  0.483551  0.466510  1.0
  C  C122  1  0.041073  0.483664  0.966536  1.0
  C  C123  1  0.041135  0.983523  0.466539  1.0
  C  C124  1  0.041039  0.983698  0.966518  1.0
  C  C125  1  0.541130  0.483565  0.466529  1.0
  C  C126  1  0.541074  0.483647  0.966511  1.0
  C  C127  1  0.541182  0.983539  0.466540  1.0
  C  C128  1  0.541065  0.983708  0.966510  1.0
  O  O129  1  0.399823  0.497771  0.183378  1.0
  O  O130  1  0.399553  0.498800  0.683446  1.0
  O  O131  1  0.399798  0.997894  0.183385  1.0
  O  O132  1  0.399623  0.998840  0.683459  1.0
  O  O133  1  0.899801  0.497787  0.183383  1.0
  O  O134  1  0.899540  0.498802  0.683437  1.0
  O  O135  1  0.899782  0.997880  0.183387  1.0
  O  O136  1  0.899589  0.998845  0.683459  1.0
  O  O137  1  0.100739  0.314002  0.316724  1.0
  O  O138  1  0.100649  0.315079  0.816681  1.0
  O  O139  1  0.100625  0.813909  0.316698  1.0
  O  O140  1  0.100655  0.815041  0.816677  1.0
  O  O141  1  0.600752  0.314023  0.316730  1.0
  O  O142  1  0.600621  0.315071  0.816674  1.0
  O  O143  1  0.600605  0.813928  0.316699  1.0
  O  O144  1  0.600653  0.815035  0.816669  1.0
  O  O145  1  0.100591  0.002722  0.316666  1.0
  O  O146  1  0.100306  0.003870  0.816730  1.0
  O  O147  1  0.100639  0.502842  0.316672  1.0
  O  O148  1  0.100283  0.503928  0.816736  1.0
  O  O149  1  0.600556  0.002730  0.316660  1.0
  O  O150  1  0.600306  0.003852  0.816730  1.0
  O  O151  1  0.600616  0.502870  0.316678  1.0
  O  O152  1  0.600256  0.503918  0.816729  1.0
  O  O153  1  0.399897  0.186643  0.183292  1.0
  O  O154  1  0.399771  0.187465  0.683262  1.0
  O  O155  1  0.399869  0.686540  0.183264  1.0
  O  O156  1  0.399725  0.687474  0.683244  1.0
  O  O157  1  0.899880  0.186631  0.183289  1.0
  O  O158  1  0.899770  0.187479  0.683270  1.0
  O  O159  1  0.899867  0.686557  0.183274  1.0
  O  O160  1  0.899717  0.687467  0.683232  1.0
  O  O161  1  0.135872  0.115662  0.230551  1.0
  O  O162  1  0.135706  0.116602  0.730571  1.0
  O  O163  1  0.135876  0.615633  0.230535  1.0
  O  O164  1  0.135612  0.616608  0.730545  1.0
  O  O165  1  0.635865  0.115668  0.230548  1.0
  O  O166  1  0.635648  0.116617  0.730583  1.0
  O  O167  1  0.635847  0.615636  0.230528  1.0
  O  O168  1  0.635611  0.616609  0.730549  1.0
  O  O169  1  0.364763  0.384918  0.269491  1.0
  O  O170  1  0.364450  0.385961  0.769513  1.0
  O  O171  1  0.364671  0.884885  0.269474  1.0
  O  O172  1  0.364487  0.885943  0.769509  1.0
  O  O173  1  0.864758  0.384913  0.269475  1.0
  O  O174  1  0.864443  0.385972  0.769524  1.0
  O  O175  1  0.864652  0.884887  0.269479  1.0
  O  O176  1  0.864471  0.885941  0.769507  1.0
