data_image0
_cell_length_a       30.4502
_cell_length_b       15.1802
_cell_length_c       15.1997
_cell_angle_alpha    117.547
_cell_angle_beta     117.876
_cell_angle_gamma    117.726

_symmetry_space_group_name_H-M    "P 1"
_symmetry_int_tables_number       1

loop_
  _symmetry_equiv_pos_as_xyz
  'x, y, z'

loop_
  _atom_site_label
  _atom_site_occupancy
  _atom_site_fract_x
  _atom_site_fract_y
  _atom_site_fract_z
  _atom_site_thermal_displace_type
  _atom_site_B_iso_or_equiv
  _atom_site_type_symbol
  C1       1.0000 0.01647  0.13440  0.56839  Biso   1.000  C
  C2       1.0000 0.03948  0.61502  0.16578  Biso   1.000  C
  C3       1.0000 0.06716  0.56782  0.03315  Biso   1.000  C
  C4       1.0000 0.08294  0.07893  0.61459  Biso   1.000  C
  C5       1.0000 0.08766  0.74265  0.34863  Biso   1.000  C
  C6       1.0000 0.09613  0.20488  0.67656  Biso   1.000  C
  C7       1.0000 0.10242  0.67642  0.19236  Biso   1.000  C
  C8       1.0000 0.12862  0.65116  0.82500  Biso   1.000  C
  C9       1.0000 0.16177  0.80776  0.79521  Biso   1.000  C
  C10      1.0000 0.17438  0.17521  0.74186  Biso   1.000  C
  C11      1.0000 0.19243  0.83410  0.92118  Biso   1.000  C
  C12      1.0000 0.21614  0.96709  0.86558  Biso   1.000  C
  C13      1.0000 0.28386  0.03291  0.13442  Biso   1.000  C
  C14      1.0000 0.30757  0.16590  0.07882  Biso   1.000  C
  C15      1.0000 0.32562  0.82479  0.25814  Biso   1.000  C
  C16      1.0000 0.33823  0.19224  0.20479  Biso   1.000  C
  C17      1.0000 0.37138  0.34884  0.17500  Biso   1.000  C
  C18      1.0000 0.39758  0.32358  0.80764  Biso   1.000  C
  C19      1.0000 0.40387  0.79512  0.32344  Biso   1.000  C
  C20      1.0000 0.41234  0.25735  0.65137  Biso   1.000  C
  C21      1.0000 0.41706  0.92107  0.38541  Biso   1.000  C
  C22      1.0000 0.43284  0.43218  0.96685  Biso   1.000  C
  C23      1.0000 0.46052  0.38498  0.83422  Biso   1.000  C
  C24      1.0000 0.48353  0.86560  0.43161  Biso   1.000  C
  H1       1.0000 0.09231  0.65552  0.63404  Biso   1.000  H
  H2       1.0000 0.17224  0.36612  0.81554  Biso   1.000  H
  H3       1.0000 0.18302  0.81531  0.34469  Biso   1.000  H
  H4       1.0000 0.31698  0.18469  0.65531  Biso   1.000  H
  H5       1.0000 0.32776  0.63388  0.18446  Biso   1.000  H
  H6       1.0000 0.40769  0.34448  0.36596  Biso   1.000  H
  O1       1.0000 0.03039  0.68862  0.32552  Biso   1.000  O
  O2       1.0000 0.03746  0.26844  0.64075  Biso   1.000  O
  O3       1.0000 0.05018  0.47762  0.63663  Biso   1.000  O
  O4       1.0000 0.13416  0.63970  0.07536  Biso   1.000  O
  O5       1.0000 0.15564  0.67402  0.93961  Biso   1.000  O
  O6       1.0000 0.16297  0.06075  0.68815  Biso   1.000  O
  O7       1.0000 0.18021  0.92506  0.73147  Biso   1.000  O
  O8       1.0000 0.18186  0.89958  0.52231  Biso   1.000  O
  O9       1.0000 0.23890  0.63651  0.10178  Biso   1.000  O
  O10      1.0000 0.26110  0.36349  0.89822  Biso   1.000  O
  O11      1.0000 0.31814  0.10043  0.47769  Biso   1.000  O
  O12      1.0000 0.31979  0.07494  0.26853  Biso   1.000  O
  O13      1.0000 0.33703  0.93925  0.31185  Biso   1.000  O
  O14      1.0000 0.34436  0.32598  0.06039  Biso   1.000  O
  O15      1.0000 0.36584  0.36030  0.92464  Biso   1.000  O
  O16      1.0000 0.44982  0.52238  0.36337  Biso   1.000  O
  O17      1.0000 0.46254  0.73156  0.35925  Biso   1.000  O
  O18      1.0000 0.46961  0.31138  0.67448  Biso   1.000  O
  Mg1      1.0000 0.05475  0.78239  0.51379  Biso   1.000  Mg
  Mg2      1.0000 0.10876  0.48567  0.89132  Biso   1.000  Mg
  Mg3      1.0000 0.24282  0.89049  0.21778  Biso   1.000  Mg
  Mg4      1.0000 0.25718  0.10951  0.78222  Biso   1.000  Mg
  Mg5      1.0000 0.39124  0.51433  0.10868  Biso   1.000  Mg
  Mg6      1.0000 0.44525  0.21761  0.48621  Biso   1.000  Mg
  C25      1.0000 0.51647  0.13440  0.56839  Biso   1.000  C
  C26      1.0000 0.53948  0.61502  0.16578  Biso   1.000  C
  C27      1.0000 0.56716  0.56782  0.03315  Biso   1.000  C
  C28      1.0000 0.58294  0.07893  0.61459  Biso   1.000  C
  C29      1.0000 0.58766  0.74265  0.34863  Biso   1.000  C
  C30      1.0000 0.59613  0.20488  0.67656  Biso   1.000  C
  C31      1.0000 0.60242  0.67642  0.19236  Biso   1.000  C
  C32      1.0000 0.62862  0.65116  0.82500  Biso   1.000  C
  C33      1.0000 0.66177  0.80776  0.79521  Biso   1.000  C
  C34      1.0000 0.67438  0.17521  0.74186  Biso   1.000  C
  C35      1.0000 0.69243  0.83410  0.92118  Biso   1.000  C
  C36      1.0000 0.71614  0.96709  0.86558  Biso   1.000  C
  C37      1.0000 0.78386  0.03291  0.13442  Biso   1.000  C
  C38      1.0000 0.80757  0.16590  0.07882  Biso   1.000  C
  C39      1.0000 0.82562  0.82479  0.25814  Biso   1.000  C
  C40      1.0000 0.83823  0.19224  0.20479  Biso   1.000  C
  C41      1.0000 0.87138  0.34884  0.17500  Biso   1.000  C
  C42      1.0000 0.89758  0.32358  0.80764  Biso   1.000  C
  C43      1.0000 0.90387  0.79512  0.32344  Biso   1.000  C
  C44      1.0000 0.91234  0.25735  0.65137  Biso   1.000  C
  C45      1.0000 0.91706  0.92107  0.38541  Biso   1.000  C
  C46      1.0000 0.93284  0.43218  0.96685  Biso   1.000  C
  C47      1.0000 0.96052  0.38498  0.83422  Biso   1.000  C
  C48      1.0000 0.98353  0.86560  0.43161  Biso   1.000  C
  H7       1.0000 0.59231  0.65552  0.63404  Biso   1.000  H
  H8       1.0000 0.67224  0.36612  0.81554  Biso   1.000  H
  H9       1.0000 0.68302  0.81531  0.34469  Biso   1.000  H
  H10      1.0000 0.81698  0.18469  0.65531  Biso   1.000  H
  H11      1.0000 0.82776  0.63388  0.18446  Biso   1.000  H
  H12      1.0000 0.90769  0.34448  0.36596  Biso   1.000  H
  O19      1.0000 0.53039  0.68862  0.32552  Biso   1.000  O
  O20      1.0000 0.53746  0.26844  0.64075  Biso   1.000  O
  O21      1.0000 0.55018  0.47762  0.63663  Biso   1.000  O
  O22      1.0000 0.63416  0.63970  0.07536  Biso   1.000  O
  O23      1.0000 0.65564  0.67402  0.93961  Biso   1.000  O
  O24      1.0000 0.66297  0.06075  0.68815  Biso   1.000  O
  O25      1.0000 0.68021  0.92506  0.73147  Biso   1.000  O
  O26      1.0000 0.68186  0.89958  0.52231  Biso   1.000  O
  O27      1.0000 0.73890  0.63651  0.10178  Biso   1.000  O
  O28      1.0000 0.76110  0.36349  0.89822  Biso   1.000  O
  O29      1.0000 0.81814  0.10043  0.47769  Biso   1.000  O
  O30      1.0000 0.81979  0.07494  0.26853  Biso   1.000  O
  O31      1.0000 0.83703  0.93925  0.31185  Biso   1.000  O
  O32      1.0000 0.84436  0.32598  0.06039  Biso   1.000  O
  O33      1.0000 0.86584  0.36030  0.92464  Biso   1.000  O
  O34      1.0000 0.94982  0.52238  0.36337  Biso   1.000  O
  O35      1.0000 0.96254  0.73156  0.35925  Biso   1.000  O
  O36      1.0000 0.96961  0.31138  0.67448  Biso   1.000  O
  Fe1      1.0000 0.55475  0.78239  0.51379  Biso   1.000  Fe
  Mg7      1.0000 0.60876  0.48567  0.89132  Biso   1.000  Mg
  Mg8      1.0000 0.74282  0.89049  0.21778  Biso   1.000  Mg
  Mg9      1.0000 0.75718  0.10951  0.78222  Biso   1.000  Mg
  Mg10     1.0000 0.89124  0.51433  0.10868  Biso   1.000  Mg
  Mg11     1.0000 0.94525  0.21761  0.48621  Biso   1.000  Mg
